<?xml version="1.0" encoding="UTF-8"?>

<!-- generated on 2025-03-12 01:58:59 by Eclipse SUMO netedit Version 1.21.0
-->

<routes xmlns:xsi="http://www.w3.org/2001/XMLSchema-instance" xsi:noNamespaceSchemaLocation="http://sumo.dlr.de/xsd/routes_file.xsd">
    <!-- Vehicles, persons and containers (sorted by depart) -->
    <flow id="f_0" begin="0.00" from="west_1" to="E0.51" end="1000.00" vehsPerHour="500"/>
    <flow id="f_1" begin="0.00" departPos="0.00" from="west_1" to="-E1" end="1000.00" vehsPerHour="120"/>
    <flow id="f_2" begin="0.00" from="north_1" to="E2" end="1000.00" vehsPerHour="120"/>
    <flow id="f_3" begin="0.00" from="north_1" to="E0.51" end="1000.00" vehsPerHour="120"/>
    <flow id="f_4" begin="0.00" from="east_1" to="-E0" end="1000.00" vehsPerHour="500"/>
    <flow id="f_5" begin="0.00" from="east_1" to="E2" end="1000.00" vehsPerHour="120"/>
    <flow id="f_6" begin="0.00" from="south_1" to="-E1" end="1000.00" vehsPerHour="120"/>
    <flow id="f_7" begin="0.00" from="south_1" to="-E0" end="1000.00" vehsPerHour="120"/>
</routes>
