<?xml version="1.0" encoding="UTF-8"?>

<!-- generated on 2025-03-10 23:22:20 by Eclipse SUMO netedit Version 1.21.0
<neteditConfiguration xmlns:xsi="http://www.w3.org/2001/XMLSchema-instance" xsi:noNamespaceSchemaLocation="http://sumo.dlr.de/xsd/neteditConfiguration.xsd">

    <input>
        <sumocfg-file value="C:\Users\Kenny\Desktop\Conference Paper Writing\simulation\four_way_simulation.sumocfg"/>
        <additional-files value="C:\Users\Kenny\Desktop\Conference Paper Writing\simulation\four_way_simulation.add.xml"/>
        <route-files value="C:\Users\Kenny\Desktop\Conference Paper Writing\simulation\four_way_simulation.rou.xml"/>
        <data-files value="C:\Users\Kenny\Desktop\Conference Paper Writing\simulation\four_way_simulation.dat.xml"/>
        <sumo-net-file value="C:\Users\Kenny\Desktop\Conference Paper Writing\simulation\single_lane_fourway.net.xml"/>
    </input>

    <output>
        <output-file value="C:\Users\Kenny\Desktop\Conference Paper Writing\simulation\single_lane_fourway.net.xml"/>
    </output>

    <processing>
        <geometry.min-radius.fix.railways value="false"/>
        <geometry.max-grade.fix value="false"/>
        <offset.disable-normalization value="true"/>
        <lefthand value="0"/>
    </processing>

    <junctions>
        <no-turnarounds value="true"/>
        <junctions.corner-detail value="5"/>
        <junctions.limit-turn-speed value="5.50"/>
        <rectangular-lane-cut value="0"/>
    </junctions>

    <pedestrian>
        <walkingareas value="0"/>
    </pedestrian>

</neteditConfiguration>
-->

<net version="1.20" junctionCornerDetail="5" limitTurnSpeed="5.50" xmlns:xsi="http://www.w3.org/2001/XMLSchema-instance" xsi:noNamespaceSchemaLocation="http://sumo.dlr.de/xsd/net_file.xsd">

    <location netOffset="0.00,0.00" convBoundary="-54.58,-44.17,59.31,43.82" origBoundary="-10000000000.00,-10000000000.00,10000000000.00,10000000000.00" projParameter="!"/>

    <edge id=":clusterJ3_J4_J6_0" function="internal">
        <lane id=":clusterJ3_J4_J6_0_0" index="0" speed="13.89" length="14.57" shape="10.78,3.80 -3.78,3.77"/>
    </edge>
    <edge id=":clusterJ3_J4_J6_1" function="internal">
        <lane id=":clusterJ3_J4_J6_1_0" index="0" speed="8.67" length="16.99" shape="10.78,3.80 6.92,3.03 4.18,0.74 2.57,-3.07 2.09,-8.40"/>
    </edge>
    <edge id=":clusterJ3_J4_J6_2" function="internal">
        <lane id=":clusterJ3_J4_J6_2_0" index="0" speed="13.89" length="21.04" shape="5.29,-8.36 4.93,12.68"/>
    </edge>
    <edge id=":clusterJ3_J4_J6_3" function="internal">
        <lane id=":clusterJ3_J4_J6_3_0" index="0" speed="8.77" length="17.11" shape="5.29,-8.36 4.66,-3.05 2.94,0.74 0.13,3.02 -3.78,3.77"/>
    </edge>
    <edge id=":clusterJ3_J4_J6_4" function="internal">
        <lane id=":clusterJ3_J4_J6_4_0" index="0" speed="13.89" length="14.57" shape="-3.78,0.57 10.79,0.60"/>
    </edge>
    <edge id=":clusterJ3_J4_J6_5" function="internal">
        <lane id=":clusterJ3_J4_J6_5_0" index="0" speed="8.66" length="16.92" shape="-3.78,0.57 0.08,1.33 2.82,3.60 4.44,7.39 4.93,12.68"/>
    </edge>
    <edge id=":clusterJ3_J4_J6_6" function="internal">
        <lane id=":clusterJ3_J4_J6_6_0" index="0" speed="13.89" length="21.05" shape="1.73,12.64 2.09,-8.40"/>
    </edge>
    <edge id=":clusterJ3_J4_J6_7" function="internal">
        <lane id=":clusterJ3_J4_J6_7_0" index="0" speed="8.75" length="17.04" shape="1.73,12.64 2.35,7.36 4.06,3.60 6.88,1.34 10.79,0.60"/>
    </edge>

    <edge id="-E0" from="clusterJ3_J4_J6" to="J0" priority="-1" shape="3.44,2.18 -54.58,2.08">
        <lane id="-E0_0" index="0" speed="13.89" length="50.80" shape="-3.78,3.77 -54.58,3.68"/>
    </edge>
    <edge id="-E0.51" from="J1" to="clusterJ3_J4_J6" priority="-1" shape="59.31,2.30 3.44,2.18">
        <lane id="-E0.51_0" index="0" speed="13.89" length="48.52" shape="59.31,3.90 10.78,3.80"/>
    </edge>
    <edge id="-E1" from="clusterJ3_J4_J6" to="J2" priority="-1" shape="3.33,12.66 2.97,43.82">
        <lane id="-E1_0" index="0" speed="13.89" length="31.16" shape="4.93,12.68 4.57,43.84"/>
    </edge>
    <edge id="-E2" from="J5" to="clusterJ3_J4_J6" priority="-1" shape="4.16,-44.17 3.69,-8.38">
        <lane id="-E2_0" index="0" speed="13.89" length="35.79" shape="5.76,-44.15 5.29,-8.36"/>
    </edge>
    <edge id="E0" from="J0" to="clusterJ3_J4_J6" priority="-1" shape="-54.58,2.08 3.44,2.18">
        <lane id="E0_0" index="0" speed="13.89" length="50.80" shape="-54.58,0.48 -3.78,0.57"/>
    </edge>
    <edge id="E0.51" from="clusterJ3_J4_J6" to="J1" priority="-1" shape="3.44,2.18 59.31,2.30">
        <lane id="E0.51_0" index="0" speed="13.89" length="48.52" shape="10.79,0.60 59.31,0.70"/>
    </edge>
    <edge id="E1" from="J2" to="clusterJ3_J4_J6" priority="-1" shape="2.97,43.82 3.33,12.66">
        <lane id="E1_0" index="0" speed="13.89" length="31.16" shape="1.37,43.80 1.73,12.64"/>
    </edge>
    <edge id="E2" from="clusterJ3_J4_J6" to="J5" priority="-1" shape="3.69,-8.38 4.16,-44.17">
        <lane id="E2_0" index="0" speed="13.89" length="35.79" shape="2.09,-8.40 2.56,-44.19"/>
    </edge>

    <tlLogic id="clusterJ3_J4_J6" type="static" programID="0" offset="0">
        <phase duration="17" state="rrrrGGrr"/>
        <phase duration="3"  state="rrrryyrr"/>
        <phase duration="1"  state="rrrrrrrr"/>
        <phase duration="19" state="rrrrrrGG"/>
        <phase duration="3"  state="rrrrrryy"/>
        <phase duration="1"  state="rrrrrrrr"/>
        <phase duration="19" state="GGrrrrrr"/>
        <phase duration="3"  state="yyrrrrrr"/>
        <phase duration="1"  state="rrrrrrrr"/>
        <phase duration="19" state="rrGGrrrr"/>
        <phase duration="3"  state="rryyrrrr"/>
        <phase duration="1"  state="rrrrrrrr"/>
    </tlLogic>

    <junction id="J0" type="dead_end" x="-54.58" y="2.08" incLanes="-E0_0" intLanes="" shape="-54.58,2.08 -54.59,5.28 -54.58,2.08"/>
    <junction id="J1" type="dead_end" x="59.31" y="2.30" incLanes="E0.51_0" intLanes="" shape="59.31,2.30 59.32,-0.90 59.31,2.30"/>
    <junction id="J2" type="dead_end" x="2.97" y="43.82" incLanes="-E1_0" intLanes="" shape="2.97,43.82 6.17,43.86 2.97,43.82"/>
    <junction id="J5" type="dead_end" x="4.16" y="-44.17" incLanes="E2_0" intLanes="" shape="4.16,-44.17 0.96,-44.21 4.16,-44.17"/>
    <junction id="clusterJ3_J4_J6" type="traffic_light" x="3.49" y="2.15" incLanes="-E0.51_0 -E2_0 E0_0 E1_0" intLanes=":clusterJ3_J4_J6_0_0 :clusterJ3_J4_J6_1_0 :clusterJ3_J4_J6_2_0 :clusterJ3_J4_J6_3_0 :clusterJ3_J4_J6_4_0 :clusterJ3_J4_J6_5_0 :clusterJ3_J4_J6_6_0 :clusterJ3_J4_J6_7_0" shape="10.78,5.40 10.79,-1.00 8.58,-1.82 7.82,-2.84 7.28,-4.27 6.97,-6.10 6.89,-8.34 0.49,-8.42 0.34,-6.16 -0.03,-4.31 -0.62,-2.88 -1.45,-1.85 -2.50,-1.24 -3.78,-1.03 -3.79,5.37 -1.57,6.18 -0.81,7.18 -0.27,8.60 0.04,10.41 0.13,12.62 6.53,12.70 6.67,10.46 7.04,8.64 7.63,7.22 8.46,6.20 9.50,5.60">
        <request index="0" response="00000000" foes="11101100" cont="0"/>
        <request index="1" response="00010000" foes="11011100" cont="0"/>
        <request index="2" response="00110011" foes="10110011" cont="0"/>
        <request index="3" response="01110011" foes="01110011" cont="0"/>
        <request index="4" response="00000000" foes="11001110" cont="0"/>
        <request index="5" response="00000001" foes="11001101" cont="0"/>
        <request index="6" response="00110011" foes="00111011" cont="0"/>
        <request index="7" response="00110111" foes="00110111" cont="0"/>
    </junction>

    <connection from="-E0.51" to="-E0" fromLane="0" toLane="0" via=":clusterJ3_J4_J6_0_0" tl="clusterJ3_J4_J6" linkIndex="0" dir="s" state="O"/>
    <connection from="-E0.51" to="E2" fromLane="0" toLane="0" via=":clusterJ3_J4_J6_1_0" tl="clusterJ3_J4_J6" linkIndex="1" dir="l" state="o"/>
    <connection from="-E2" to="-E1" fromLane="0" toLane="0" via=":clusterJ3_J4_J6_2_0" tl="clusterJ3_J4_J6" linkIndex="2" dir="s" state="o"/>
    <connection from="-E2" to="-E0" fromLane="0" toLane="0" via=":clusterJ3_J4_J6_3_0" tl="clusterJ3_J4_J6" linkIndex="3" dir="l" state="o"/>
    <connection from="E0" to="E0.51" fromLane="0" toLane="0" via=":clusterJ3_J4_J6_4_0" tl="clusterJ3_J4_J6" linkIndex="4" dir="s" state="O"/>
    <connection from="E0" to="-E1" fromLane="0" toLane="0" via=":clusterJ3_J4_J6_5_0" tl="clusterJ3_J4_J6" linkIndex="5" dir="l" state="o"/>
    <connection from="E1" to="E2" fromLane="0" toLane="0" via=":clusterJ3_J4_J6_6_0" tl="clusterJ3_J4_J6" linkIndex="6" dir="s" state="o"/>
    <connection from="E1" to="E0.51" fromLane="0" toLane="0" via=":clusterJ3_J4_J6_7_0" tl="clusterJ3_J4_J6" linkIndex="7" dir="l" state="o"/>

    <connection from=":clusterJ3_J4_J6_0" to="-E0" fromLane="0" toLane="0" dir="s" state="M"/>
    <connection from=":clusterJ3_J4_J6_1" to="E2" fromLane="0" toLane="0" dir="l" state="M"/>
    <connection from=":clusterJ3_J4_J6_2" to="-E1" fromLane="0" toLane="0" dir="s" state="M"/>
    <connection from=":clusterJ3_J4_J6_3" to="-E0" fromLane="0" toLane="0" dir="l" state="M"/>
    <connection from=":clusterJ3_J4_J6_4" to="E0.51" fromLane="0" toLane="0" dir="s" state="M"/>
    <connection from=":clusterJ3_J4_J6_5" to="-E1" fromLane="0" toLane="0" dir="l" state="M"/>
    <connection from=":clusterJ3_J4_J6_6" to="E2" fromLane="0" toLane="0" dir="s" state="M"/>
    <connection from=":clusterJ3_J4_J6_7" to="E0.51" fromLane="0" toLane="0" dir="l" state="M"/>

</net>
