<?xml version="1.0" encoding="UTF-8"?>

<!-- generated on 2025-03-17 12:15:11 by Eclipse SUMO netedit Version 1.21.0
-->

<routes xmlns:xsi="http://www.w3.org/2001/XMLSchema-instance" xsi:noNamespaceSchemaLocation="http://sumo.dlr.de/xsd/routes_file.xsd">
    <!-- VTypes -->
    <vType id="human" minGap="2.50" maxSpeed="13.89" accel="1.5" decel="3.0" sigma="0.5"/>
    <vType id="human1" minGap="2.50" maxSpeed="13.89" accel="1.5" decel="3.0" sigma="0.5"/>
    <vType id="human2" minGap="2.50" maxSpeed="13.89" accel="1.5" decel="3.0" sigma="0.5"/>
    <vType id="human3" minGap="2.50" maxSpeed="13.89" accel="1.5" decel="3.0" sigma="0.5"/>
    <vType id="human4" minGap="2.50" maxSpeed="13.89" accel="1.5" decel="3.0" sigma="0.5"/>
    <vType id="human5" minGap="2.50" maxSpeed="13.89" accel="1.5" decel="3.0" sigma="0.5"/>
    <vType id="human6" minGap="2.50" maxSpeed="13.89" accel="1.5" decel="3.0" sigma="0.5"/>
    <vType id="human7" minGap="2.50" maxSpeed="13.89" accel="1.5" decel="3.0" sigma="0.5"/>
    <vType id="t_0"/>
    <!-- Vehicles, persons and containers (sorted by depart) -->
    <flow id="f_0" type="human" begin="0.00" from="west_1" to="E0.51" end="3600.00" vehsPerHour="600"/>
    <flow id="f_1" type="human" begin="0.00" from="west_1" to="-E1" end="3600.00" vehsPerHour="200"/>
    <flow id="f_2" type="human" begin="0.00" from="north_1" to="E2" end="3600.00" vehsPerHour="200"/>
    <flow id="f_3" type="human" begin="0.00" from="north_1" to="E0.51" end="3600.00" vehsPerHour="200"/>
    <flow id="f_4" type="human" begin="0.00" from="east_1" to="-E0" end="3600.00" vehsPerHour="600"/>
    <flow id="f_5" begin="0.00" from="east_1" to="E2" end="3600.00" vehsPerHour="200"/>
    <flow id="f_6" type="human" begin="0.00" from="south_1" to="-E1" end="3600.00" vehsPerHour="200"/>
    <flow id="f_7" type="human" begin="0.00" from="south_1" to="-E0" end="3600.00" vehsPerHour="200"/>
</routes>
