<?xml version="1.0" encoding="UTF-8"?>

<!-- generated on 2025-03-17 12:16:03 by Eclipse SUMO netedit Version 1.21.0
<neteditConfiguration xmlns:xsi="http://www.w3.org/2001/XMLSchema-instance" xsi:noNamespaceSchemaLocation="http://sumo.dlr.de/xsd/neteditConfiguration.xsd">

    <input>
        <sumocfg-file value="C:\Users\Kenny\Desktop\Conference Paper Writing\simulation\scenarios\scenario_2\four_way_simulation.sumocfg"/>
        <additional-files value="C:\Users\Kenny\Desktop\Conference Paper Writing\simulation\scenarios\scenario_2\four_way_simulation.add.xml"/>
        <route-files value="C:\Users\Kenny\Desktop\Conference Paper Writing\simulation\scenarios\scenario_2\four_way_simulation.rou.xml"/>
        <data-files value="C:\Users\Kenny\Desktop\Conference Paper Writing\simulation\scenarios\scenario_2\four_way_simulation.dat.xml"/>
        <sumo-net-file value="C:\Users\Kenny\Desktop\Conference Paper Writing\simulation\scenarios\scenario_2\four_way_simulation.net.xml"/>
    </input>

    <output>
        <output-file value="C:\Users\Kenny\Desktop\Conference Paper Writing\simulation\scenarios\scenario_2\four_way_simulation.net.xml"/>
    </output>

    <processing>
        <geometry.min-radius.fix.railways value="false"/>
        <geometry.max-grade.fix value="false"/>
        <offset.disable-normalization value="true"/>
        <lefthand value="0"/>
    </processing>

    <junctions>
        <no-turnarounds value="true"/>
        <junctions.corner-detail value="5"/>
        <junctions.limit-turn-speed value="5.50"/>
        <rectangular-lane-cut value="0"/>
    </junctions>

    <pedestrian>
        <walkingareas value="0"/>
    </pedestrian>

</neteditConfiguration>
-->

<net version="1.20" junctionCornerDetail="5" limitTurnSpeed="5.50" xmlns:xsi="http://www.w3.org/2001/XMLSchema-instance" xsi:noNamespaceSchemaLocation="http://sumo.dlr.de/xsd/net_file.xsd">

    <location netOffset="0.00,0.00" convBoundary="-62.57,-59.17,67.74,64.02" origBoundary="-10000000000.00,-10000000000.00,10000000000.00,10000000000.00" projParameter="!"/>

    <edge id=":junction_1_0" function="internal">
        <lane id=":junction_1_0_0" index="0" speed="13.89" length="20.88" shape="13.58,7.28 6.86,6.60 1.45,5.39 -3.03,4.23 -6.94,3.69"/>
    </edge>
    <edge id=":junction_1_1" function="internal">
        <lane id=":junction_1_1_0" index="0" speed="9.28" length="19.44" shape="13.68,4.08 8.48,3.17 4.81,0.78 2.68,-3.09 2.09,-8.43"/>
    </edge>
    <edge id=":junction_1_2" function="internal">
        <lane id=":junction_1_2_0" index="0" speed="13.89" length="21.23" shape="8.49,-8.21 7.79,-1.43 6.60,4.11 5.47,8.72 4.93,12.68"/>
    </edge>
    <edge id=":junction_1_3" function="internal">
        <lane id=":junction_1_3_0" index="0" speed="9.37" length="19.43" shape="5.29,-8.32 4.36,-3.03 2.01,0.74 -1.76,2.98 -6.94,3.69"/>
    </edge>
    <edge id=":junction_1_4" function="internal">
        <lane id=":junction_1_4_0" index="0" speed="13.89" length="21.02" shape="-6.89,-2.71 -0.15,-2.13 5.32,-0.93 9.84,0.27 13.77,0.89"/>
    </edge>
    <edge id=":junction_1_5" function="internal">
        <lane id=":junction_1_5_0" index="0" speed="9.25" length="19.42" shape="-6.92,0.49 -1.66,1.29 2.06,3.59 4.26,7.39 4.93,12.68"/>
    </edge>
    <edge id=":junction_1_6" function="internal">
        <lane id=":junction_1_6_0" index="0" speed="13.89" length="21.35" shape="-1.47,12.59 -0.87,5.79 0.31,0.20 1.50,-4.44 2.09,-8.43"/>
    </edge>
    <edge id=":junction_1_7" function="internal">
        <lane id=":junction_1_7_0" index="0" speed="9.19" length="19.25" shape="1.73,12.64 2.55,7.36 4.83,3.65 8.57,1.49 13.77,0.89"/>
    </edge>

    <edge id="-E0" from="junction_1" to="J0" priority="-1" length="200.00" shape="3.44,2.18 -62.57,1.63">
        <lane id="-E0_0" index="0" speed="13.89" length="200.00" shape="-6.94,3.69 -62.58,3.23"/>
    </edge>
    <edge id="-E1" from="junction_1" to="J2" priority="-1" length="200.00" shape="3.33,12.66 2.54,64.02">
        <lane id="-E1_0" index="0" speed="13.89" length="200.00" shape="4.93,12.68 4.14,64.04"/>
    </edge>
    <edge id="E0.51" from="junction_1" to="J1" priority="-1" length="200.00" shape="3.44,2.18 67.74,4.09">
        <lane id="E0.51_0" index="0" speed="13.89" length="200.00" shape="13.77,0.89 67.79,2.49"/>
    </edge>
    <edge id="E2" from="junction_1" to="J5" priority="-1" length="200.00" shape="3.69,-8.38 5.11,-57.95">
        <lane id="E2_0" index="0" speed="13.89" length="200.00" shape="2.09,-8.43 3.51,-58.00"/>
    </edge>
    <edge id="east_1" from="J1" to="junction_1" priority="-1" length="200.00" shape="67.74,4.09 3.44,2.18">
        <lane id="east_1_0" index="0" speed="13.89" length="200.00" shape="67.60,8.89 13.58,7.28"/>
        <lane id="east_1_1" index="1" speed="13.89" length="200.00" shape="67.69,5.69 13.68,4.08"/>
    </edge>
    <edge id="north_1" from="J2" to="junction_1" priority="-1" length="200.00" shape="2.54,64.02 3.33,12.66">
        <lane id="north_1_0" index="0" speed="13.89" length="200.00" shape="-2.26,63.95 -1.47,12.59"/>
        <lane id="north_1_1" index="1" speed="13.89" length="200.00" shape="0.94,64.00 1.73,12.64"/>
    </edge>
    <edge id="south_1" from="J5" to="junction_1" priority="-1" length="200.00" shape="5.53,-59.17 3.69,-8.38">
        <lane id="south_1_0" index="0" speed="13.89" length="200.00" shape="10.28,-57.76 8.49,-8.21"/>
        <lane id="south_1_1" index="1" speed="13.89" length="200.00" shape="7.08,-57.87 5.29,-8.32"/>
    </edge>
    <edge id="west_1" from="J0" to="junction_1" priority="-1" length="200.00" shape="-62.57,1.63 3.44,2.18">
        <lane id="west_1_0" index="0" speed="13.89" length="200.00" shape="-62.53,-3.17 -6.89,-2.71"/>
        <lane id="west_1_1" index="1" speed="13.89" length="200.00" shape="-62.56,0.03 -6.92,0.49"/>
    </edge>

    <tlLogic id="clusterJ3_J4_J6" type="static" programID="0" offset="0">
        <phase duration="18" state="rGrrrGrr"/>
        <phase duration="3"  state="ryrrryrr"/>
        <phase duration="30" state="GrrrGrrr"/>
        <phase duration="3"  state="yrrryrrr"/>
        <phase duration="19" state="rrrGrrrG"/>
        <phase duration="3"  state="rrryrrry"/>
        <phase duration="30" state="rrGrrrGr"/>
        <phase duration="3"  state="rryrrryr"/>
    </tlLogic>

    <junction id="J0" type="dead_end" x="-62.57" y="1.63" incLanes="-E0_0" intLanes="" shape="-62.57,1.63 -62.60,4.83 -62.57,1.63"/>
    <junction id="J1" type="dead_end" x="67.74" y="4.09" incLanes="E0.51_0" intLanes="" shape="67.74,4.09 67.84,0.89 67.74,4.09"/>
    <junction id="J2" type="dead_end" x="2.54" y="64.02" incLanes="-E1_0" intLanes="" shape="2.54,64.02 5.74,64.07 2.54,64.02"/>
    <junction id="J5" type="dead_end" x="5.11" y="-57.95" incLanes="E2_0" intLanes="" shape="11.88,-57.70 1.91,-58.04 5.11,-57.95"/>
    <junction id="junction_1" type="traffic_light" x="3.49" y="2.15" incLanes="east_1_0 east_1_1 south_1_0 south_1_1 west_1_0 west_1_1 north_1_0 north_1_1" intLanes=":junction_1_0_0 :junction_1_1_0 :junction_1_2_0 :junction_1_3_0 :junction_1_4_0 :junction_1_5_0 :junction_1_6_0 :junction_1_7_0" shape="13.53,8.88 13.82,-0.71 11.63,-1.60 10.89,-2.64 10.38,-4.09 10.12,-5.94 10.09,-8.20 0.49,-8.47 -0.38,-6.13 -1.41,-5.32 -2.84,-4.74 -4.66,-4.41 -6.88,-4.31 -6.96,5.29 -4.75,6.12 -3.99,7.13 -3.45,8.54 -3.15,10.35 -3.07,12.56 6.53,12.71 7.34,10.49 8.31,9.74 9.67,9.22 11.41,8.93">
        <request index="0" response="11001100" foes="11101100" cont="0"/>
        <request index="1" response="11011100" foes="11011100" cont="0"/>
        <request index="2" response="00000000" foes="10110011" cont="0"/>
        <request index="3" response="01000000" foes="01110011" cont="0"/>
        <request index="4" response="11001100" foes="11001110" cont="0"/>
        <request index="5" response="11001101" foes="11001101" cont="0"/>
        <request index="6" response="00000000" foes="00111011" cont="0"/>
        <request index="7" response="00000100" foes="00110111" cont="0"/>
    </junction>

    <connection from="east_1" to="-E0" fromLane="0" toLane="0" via=":junction_1_0_0" tl="clusterJ3_J4_J6" linkIndex="0" dir="s" state="o"/>
    <connection from="east_1" to="E2" fromLane="1" toLane="0" via=":junction_1_1_0" tl="clusterJ3_J4_J6" linkIndex="1" dir="l" state="o"/>
    <connection from="north_1" to="E2" fromLane="0" toLane="0" via=":junction_1_6_0" tl="clusterJ3_J4_J6" linkIndex="6" dir="s" state="O"/>
    <connection from="north_1" to="E0.51" fromLane="1" toLane="0" via=":junction_1_7_0" tl="clusterJ3_J4_J6" linkIndex="7" dir="l" state="o"/>
    <connection from="south_1" to="-E1" fromLane="0" toLane="0" via=":junction_1_2_0" tl="clusterJ3_J4_J6" linkIndex="2" dir="s" state="O"/>
    <connection from="south_1" to="-E0" fromLane="1" toLane="0" via=":junction_1_3_0" tl="clusterJ3_J4_J6" linkIndex="3" dir="l" state="o"/>
    <connection from="west_1" to="E0.51" fromLane="0" toLane="0" via=":junction_1_4_0" tl="clusterJ3_J4_J6" linkIndex="4" dir="s" state="o"/>
    <connection from="west_1" to="-E1" fromLane="1" toLane="0" via=":junction_1_5_0" tl="clusterJ3_J4_J6" linkIndex="5" dir="l" state="o"/>

    <connection from=":junction_1_0" to="-E0" fromLane="0" toLane="0" dir="s" state="M"/>
    <connection from=":junction_1_1" to="E2" fromLane="0" toLane="0" dir="l" state="M"/>
    <connection from=":junction_1_2" to="-E1" fromLane="0" toLane="0" dir="s" state="M"/>
    <connection from=":junction_1_3" to="-E0" fromLane="0" toLane="0" dir="l" state="M"/>
    <connection from=":junction_1_4" to="E0.51" fromLane="0" toLane="0" dir="s" state="M"/>
    <connection from=":junction_1_5" to="-E1" fromLane="0" toLane="0" dir="l" state="M"/>
    <connection from=":junction_1_6" to="E2" fromLane="0" toLane="0" dir="s" state="M"/>
    <connection from=":junction_1_7" to="E0.51" fromLane="0" toLane="0" dir="l" state="M"/>

</net>
