<?xml version="1.0" encoding="UTF-8"?>

<!-- generated on 2025-03-31 14:43:11 by Eclipse SUMO netedit Version 1.21.0
<neteditConfiguration xmlns:xsi="http://www.w3.org/2001/XMLSchema-instance" xsi:noNamespaceSchemaLocation="http://sumo.dlr.de/xsd/neteditConfiguration.xsd">

    <input>
        <sumocfg-file value="C:\Users\Kenny\Desktop\Conference Paper Writing\simulation\scenarios\scenario_1\four_way_simulation.sumocfg"/>
        <additional-files value="C:\Users\Kenny\Desktop\Conference Paper Writing\simulation\scenarios\scenario_1\four_way_simulation.add.xml"/>
        <route-files value="C:\Users\Kenny\Desktop\Conference Paper Writing\simulation\scenarios\scenario_1\four_way_simulation.rou.xml"/>
        <data-files value="C:\Users\Kenny\Desktop\Conference Paper Writing\simulation\scenarios\scenario_1\four_way_simulation.dat.xml"/>
        <sumo-net-file value="C:\Users\Kenny\Desktop\Conference Paper Writing\simulation\scenarios\scenario_1\four_way_simulation.net.xml"/>
    </input>

    <processing>
        <geometry.min-radius.fix.railways value="false"/>
        <geometry.max-grade.fix value="false"/>
        <offset.disable-normalization value="true"/>
        <lefthand value="0"/>
    </processing>

    <junctions>
        <no-turnarounds value="true"/>
        <junctions.corner-detail value="5"/>
        <junctions.limit-turn-speed value="5.50"/>
        <rectangular-lane-cut value="0"/>
    </junctions>

    <pedestrian>
        <walkingareas value="0"/>
    </pedestrian>

</neteditConfiguration>
-->

<additional xmlns:xsi="http://www.w3.org/2001/XMLSchema-instance" xsi:noNamespaceSchemaLocation="http://sumo.dlr.de/xsd/additional_file.xsd">
    <tlLogic id="clusterJ10_J11" type="static" programID="0" offset="0">
        <phase duration="18" state="rGrrrGrr"/>
        <phase duration="3"  state="rYrrrYrr"/>
        <phase duration="20" state="GrrrGrrr"/>
        <phase duration="3"  state="YrrrYrrr"/>
        <phase duration="20" state="rrrGrrrG"/>
        <phase duration="3"  state="rrrYrrrY"/>
        <phase duration="20" state="rrGrrrGr"/>
        <phase duration="3"  state="rrYrrrYr"/>
    </tlLogic>
</additional>
