<?xml version="1.0" encoding="UTF-8"?>

<!-- generated on 2025-03-31 23:17:16 by Eclipse SUMO sumo Version 1.21.0
-->

<sumoConfiguration xmlns:xsi="http://www.w3.org/2001/XMLSchema-instance" xsi:noNamespaceSchemaLocation="http://sumo.dlr.de/xsd/sumoConfiguration.xsd">

    <input>
        <net-file value="four_way_simulation.net.xml"/>
        <route-files value="four_way_simulation.rou.xml"/>
        <additional-files value="four_way_simulation.add.xml"/>
    </input>

</sumoConfiguration>
